Version 4
SHEET 1 972 680
WIRE 176 32 176 0
WIRE 208 32 176 32
WIRE 208 64 208 32
WIRE 96 80 96 0
WIRE 112 80 96 80
WIRE 176 80 176 32
WIRE 176 80 160 80
WIRE 96 128 -16 128
WIRE 240 128 176 128
WIRE 400 128 320 128
WIRE -16 144 -16 128
WIRE 240 144 240 128
WIRE 320 144 320 128
WIRE 400 176 400 128
WIRE -16 320 -16 224
WIRE 240 320 240 208
WIRE 240 320 -16 320
WIRE 320 320 320 208
WIRE 320 320 240 320
WIRE 400 320 400 240
WIRE 400 320 320 320
FLAG -16 320 0
FLAG 208 64 0
SYMBOL voltage -16 128 R0
WINDOW 123 0 0 Left 0
WINDOW 39 0 0 Left 0
SYMATTR InstName V1
SYMATTR Value 11.3
SYMBOL cap 304 144 R0
WINDOW 3 32 53 Left 2
SYMATTR Value 33µ
SYMATTR InstName C1
SYMBOL ind 224 160 R270
WINDOW 0 32 56 VTop 2
WINDOW 3 5 56 VBottom 2
SYMATTR InstName L1
SYMATTR Value 1400µ
SYMBOL schottky 256 208 R180
WINDOW 0 24 64 Left 2
WINDOW 3 24 0 Left 2
SYMATTR InstName D1
SYMBOL voltage 80 0 R270
WINDOW 123 0 0 Left 0
WINDOW 39 0 0 Left 0
SYMATTR InstName V2
SYMATTR Value PULSE(0 2m 0 0 0 {Ton} {T})
SYMBOL load 384 176 R0
WINDOW 123 0 0 Left 0
WINDOW 39 0 0 Left 0
SYMATTR InstName I2
SYMATTR Value 35m
SYMBOL sw 192 128 R90
SYMATTR InstName S1
TEXT -48 344 Left 2 !.PARAM F = 8.7k\n.PARAM T = 1/F\n.PARAM Ton = 0.1*T\n.tran 0 0.05 0
TEXT 360 16 Left 2 !.Model SW SW(Ron = 1m Roff = 100Meg Vt = 1m)
